// -*- C++ -*-
// File generated by PyFoam - sorry for the ugliness

FoamFile
{
 version 2.0;
 format ascii;
 class volScalarField;
 location "0";
 object T;
}

dimensions [ 0 0 0 1 0 0 0 ];

internalField uniform 301.2402844993568;

boundaryField
{
  floor
  {
    type wallHeatTransfer;
    Tinf uniform 298.84999999999997;
    alphaWall uniform 0.24;
    value uniform 300;
  }
  ceiling
  {
    type wallHeatTransfer;
    Tinf uniform 298.84999999999997;
    alphaWall uniform 0.24;
    value uniform 300;
  }
  sWall
  {
    type wallHeatTransfer;
    Tinf uniform 311.14720679012345;
    alphaWall uniform 0.36;
    value uniform 300;
  }
  nWall
  {
    type wallHeatTransfer;
    Tinf uniform 299.15000000000003;
    alphaWall uniform 0.36;
    value uniform 300;
  }
  sideWalls
  {
    type empty;
  }
  outlet
  {
    type zeroGradient;
  }
  inlet
  {
    type fixedValue;
    value uniform 295.15;
  }
  glass1
  {
    type wallHeatTransfer;
    Tinf uniform 311.14720679012345;
    alphaWall uniform 4.3;
    value uniform 300;
  }
  glass2
  {
    type wallHeatTransfer;
    Tinf uniform 299.15000000000003;
    alphaWall uniform 4.3;
    value uniform 300;
  }
  sun
  {
    type wallHeatTransfer;
    Tinf uniform 298.84999999999997;
    alphaWall uniform 0.24;
    value uniform 300;
  }
  heatsource1
  {
    type fixedGradient;
    gradient uniform 0;
  }
  heatsource2
  {
    type fixedGradient;
    gradient uniform 100;
  }
  Table_master
  {
    type zeroGradient;
  }
  Table_slave
  {
    type zeroGradient;
  }
} 	// ************************************************************************* //

